4
Coordinates from ORCA-job /beegfs/desy/group/cfel/cmi/yachmena/s2cl2/s2cl2_mp2_def2tzvpp_gopt
  S   0.62343451524828      0.74851460771596      0.74188708659932
  S   -0.62343451520743     -0.74851460764339      0.74188708650493
  Cl  -0.00338636809538      2.07205754892655     -0.69808708654412
  Cl  0.00338636805452     -2.07205754899912     -0.69808708656014
