4
Coordinates from ORCA-job /beegfs/desy/group/cfel/cmi/yachmena/s2cl2/s2cl2_b3lyp_def2tzvpp_gopt
  S   0.61674371657190      0.75553428457864      0.74014319245416
  S   -0.61674372187369     -0.75553428916743      0.74014319918959
  Cl  -0.00041530544423      2.15657328504560     -0.69634319495315
  Cl  0.00041531074603     -2.15657328045681     -0.69634319669060
